Version 4.1
SHEET 1 1812 804
WIRE 848 32 176 32
WIRE 1504 32 928 32
WIRE 336 112 240 112
WIRE 512 112 416 112
WIRE 816 128 752 128
WIRE 960 128 896 128
WIRE 1264 160 1184 160
WIRE 1392 160 1328 160
WIRE 48 208 -16 208
WIRE 176 208 176 32
WIRE 176 208 128 208
WIRE 240 208 240 112
WIRE 240 208 176 208
WIRE 288 208 240 208
WIRE 512 240 512 112
WIRE 512 240 400 240
WIRE 592 240 512 240
WIRE 752 240 752 128
WIRE 752 240 672 240
WIRE 800 240 752 240
WIRE 288 272 240 272
WIRE 960 272 960 128
WIRE 960 272 912 272
WIRE 1024 272 960 272
WIRE 1184 272 1184 160
WIRE 1184 272 1104 272
WIRE 1232 272 1184 272
WIRE 800 304 752 304
WIRE 1392 304 1392 160
WIRE 1392 304 1344 304
WIRE 1504 304 1504 32
WIRE 1504 304 1392 304
WIRE 240 320 240 272
WIRE 1232 336 1184 336
WIRE 752 352 752 304
WIRE 1184 384 1184 336
WIRE 176 400 176 208
WIRE 496 400 176 400
WIRE 880 400 576 400
WIRE 864 448 -96 448
WIRE 1504 448 1504 304
WIRE 1504 448 896 448
WIRE 272 512 208 512
WIRE 416 512 352 512
WIRE 704 544 624 544
WIRE 832 544 768 544
WIRE 1136 560 1072 560
WIRE 1280 560 1216 560
WIRE -96 592 -96 448
WIRE 48 592 -96 592
WIRE 208 592 208 512
WIRE 208 592 128 592
WIRE 256 592 208 592
WIRE 416 624 416 512
WIRE 416 624 368 624
WIRE 480 624 416 624
WIRE 624 624 624 544
WIRE 624 624 560 624
WIRE 672 624 624 624
WIRE 256 656 208 656
WIRE 832 656 832 544
WIRE 832 656 784 656
WIRE 880 656 880 400
WIRE 880 656 832 656
WIRE 928 656 880 656
WIRE 1072 656 1072 560
WIRE 1072 656 1008 656
WIRE 1120 656 1072 656
WIRE 672 688 624 688
WIRE 1280 688 1280 560
WIRE 1280 688 1232 688
WIRE 1520 688 1280 688
WIRE 208 704 208 656
WIRE 1120 720 1072 720
WIRE 624 736 624 688
WIRE 1072 768 1072 720
FLAG -16 208 Vi
FLAG 240 320 0
FLAG 752 352 0
FLAG 1184 384 0
FLAG 208 704 0
FLAG 624 736 0
FLAG 1072 768 0
FLAG 1520 688 Vo
SYMBOL res 32 224 R270
WINDOW 0 27 56 VTop 2
WINDOW 3 3 56 VBottom 2
SYMATTR InstName R1
SYMATTR Value 10k
SYMBOL TCLib\\OA_Ideal 480 192 R0
SYMATTR InstName U1
SYMATTR Value ""
SYMATTR Value2 ""
SYMBOL res 432 96 R90
WINDOW 0 3 56 VBottom 2
WINDOW 3 27 56 VTop 2
SYMATTR InstName R2
SYMATTR Value 10k
SYMBOL res 688 224 R90
WINDOW 0 3 56 VBottom 2
WINDOW 3 27 56 VTop 2
SYMATTR InstName R3
SYMATTR Value 10k
SYMBOL res 912 112 R90
WINDOW 0 3 56 VBottom 2
WINDOW 3 27 56 VTop 2
SYMATTR InstName R4
SYMATTR Value 10k
SYMBOL res 1120 256 R90
WINDOW 0 3 56 VBottom 2
WINDOW 3 27 56 VTop 2
SYMATTR InstName R5
SYMATTR Value 100k
SYMBOL res 144 576 R90
WINDOW 0 3 56 VBottom 2
WINDOW 3 27 56 VTop 2
SYMATTR InstName R7
SYMATTR Value 10k
SYMBOL res 368 496 R90
WINDOW 0 3 56 VBottom 2
WINDOW 3 27 56 VTop 2
SYMATTR InstName R8
SYMATTR Value 10k
SYMBOL cap 1328 144 R90
WINDOW 0 0 32 VBottom 2
WINDOW 3 32 32 VTop 2
SYMATTR InstName C1
SYMATTR Value 1”
SYMBOL res 576 608 R90
WINDOW 0 3 56 VBottom 2
WINDOW 3 27 56 VTop 2
SYMATTR InstName R6
SYMATTR Value 47k
SYMBOL res 1024 640 R90
WINDOW 0 3 56 VBottom 2
WINDOW 3 27 56 VTop 2
SYMATTR InstName R10
SYMATTR Value 10k
SYMBOL res 1232 544 R90
WINDOW 0 3 56 VBottom 2
WINDOW 3 27 56 VTop 2
SYMATTR InstName R11
SYMATTR Value 10k
SYMBOL cap 768 528 R90
WINDOW 0 0 32 VBottom 2
WINDOW 3 32 32 VTop 2
SYMATTR InstName C2
SYMATTR Value 1”
SYMBOL TCLib\\OA_Ideal 992 224 R0
SYMATTR InstName U2
SYMATTR Value ""
SYMATTR Value2 ""
SYMBOL TCLib\\OA_Ideal 1424 256 R0
SYMATTR InstName U3
SYMATTR Value ""
SYMATTR Value2 ""
SYMBOL TCLib\\OA_Ideal 448 576 R0
SYMATTR InstName U4
SYMATTR Value ""
SYMATTR Value2 ""
SYMBOL TCLib\\OA_Ideal 864 608 R0
SYMATTR InstName U5
SYMATTR Value ""
SYMATTR Value2 ""
SYMBOL TCLib\\OA_Ideal 1312 640 R0
SYMATTR InstName U6
SYMATTR Value ""
SYMATTR Value2 ""
SYMBOL res 944 16 R90
WINDOW 0 3 56 VBottom 2
WINDOW 3 27 56 VTop 2
SYMATTR InstName R_k2
SYMATTR Value 8530
SYMBOL res 592 384 R90
WINDOW 0 3 56 VBottom 2
WINDOW 3 27 56 VTop 2
SYMATTR InstName R_k1
SYMATTR Value 10k
SYMBOL TCLib\\Special\\bypass 864 448 R0
SYMATTR InstName U7
RECTANGLE Normal 1776 800 -304 -112 2
