Version 4.1
SHEET 1 1812 804
WIRE 144 -64 96 -64
WIRE 256 16 160 16
WIRE 432 16 336 16
WIRE 736 32 672 32
WIRE 880 32 816 32
WIRE 1184 64 1104 64
WIRE 1312 64 1248 64
WIRE 1488 64 1424 64
WIRE -32 112 -96 112
WIRE 96 112 96 -64
WIRE 96 112 48 112
WIRE 160 112 160 16
WIRE 160 112 96 112
WIRE 208 112 160 112
WIRE 432 144 432 16
WIRE 432 144 320 144
WIRE 512 144 432 144
WIRE 672 144 672 32
WIRE 672 144 592 144
WIRE 720 144 672 144
WIRE 208 176 160 176
WIRE 880 176 880 32
WIRE 880 176 832 176
WIRE 944 176 880 176
WIRE 1104 176 1104 64
WIRE 1104 176 1024 176
WIRE 1152 176 1104 176
WIRE 720 208 672 208
WIRE 1312 208 1312 64
WIRE 1312 208 1264 208
WIRE 1424 208 1424 64
WIRE 1424 208 1312 208
WIRE 160 224 160 176
WIRE 1152 240 1104 240
WIRE 672 256 672 208
WIRE 1104 288 1104 240
WIRE 1424 336 1424 208
WIRE 1424 336 -176 336
WIRE 416 384 368 384
WIRE 192 416 128 416
WIRE 336 416 272 416
WIRE 848 432 800 432
WIRE 624 448 544 448
WIRE 752 448 688 448
WIRE 1056 464 992 464
WIRE 1200 464 1136 464
WIRE -176 496 -176 336
WIRE -32 496 -176 496
WIRE 128 496 128 416
WIRE 128 496 48 496
WIRE 176 496 128 496
WIRE 336 528 336 416
WIRE 336 528 288 528
WIRE 368 528 368 384
WIRE 368 528 336 528
WIRE 400 528 368 528
WIRE 544 528 544 448
WIRE 544 528 480 528
WIRE 592 528 544 528
WIRE 176 560 128 560
WIRE 752 560 752 448
WIRE 752 560 704 560
WIRE 800 560 800 432
WIRE 800 560 752 560
WIRE 832 560 800 560
WIRE 992 560 992 464
WIRE 992 560 912 560
WIRE 1040 560 992 560
WIRE 592 592 544 592
WIRE 1200 592 1200 464
WIRE 1200 592 1152 592
WIRE 1440 592 1200 592
WIRE 128 608 128 560
WIRE 1040 624 992 624
WIRE 544 640 544 592
WIRE 992 672 992 624
FLAG -96 112 Vi
FLAG 144 -64 CON1
FLAG 160 224 0
FLAG 672 256 0
FLAG 1104 288 0
FLAG 128 608 0
FLAG 544 640 0
FLAG 992 672 0
FLAG 1440 592 Vo
FLAG 1488 64 CON2
FLAG 416 384 CON3
FLAG 848 432 CON4
SYMBOL res -48 128 R270
WINDOW 0 27 56 VTop 2
WINDOW 3 3 56 VBottom 2
SYMATTR InstName R1
SYMATTR Value 10k
SYMBOL TCLib\\OA_Ideal 400 96 R0
SYMATTR InstName U1
SYMATTR Value ""
SYMATTR Value2 ""
SYMBOL res 352 0 R90
WINDOW 0 3 56 VBottom 2
WINDOW 3 27 56 VTop 2
SYMATTR InstName R2
SYMATTR Value 10k
SYMBOL res 608 128 R90
WINDOW 0 3 56 VBottom 2
WINDOW 3 27 56 VTop 2
SYMATTR InstName R3
SYMATTR Value 10k
SYMBOL res 832 16 R90
WINDOW 0 3 56 VBottom 2
WINDOW 3 27 56 VTop 2
SYMATTR InstName R4
SYMATTR Value 10k
SYMBOL res 1040 160 R90
WINDOW 0 3 56 VBottom 2
WINDOW 3 27 56 VTop 2
SYMATTR InstName R5
SYMATTR Value 100k
SYMBOL res 64 480 R90
WINDOW 0 3 56 VBottom 2
WINDOW 3 27 56 VTop 2
SYMATTR InstName R7
SYMATTR Value 10k
SYMBOL res 288 400 R90
WINDOW 0 3 56 VBottom 2
WINDOW 3 27 56 VTop 2
SYMATTR InstName R8
SYMATTR Value 10k
SYMBOL cap 1248 48 R90
WINDOW 0 0 32 VBottom 2
WINDOW 3 32 32 VTop 2
SYMATTR InstName C1
SYMATTR Value 1µ
SYMBOL res 496 512 R90
WINDOW 0 3 56 VBottom 2
WINDOW 3 27 56 VTop 2
SYMATTR InstName R6
SYMATTR Value 47k
SYMBOL res 928 544 R90
WINDOW 0 3 56 VBottom 2
WINDOW 3 27 56 VTop 2
SYMATTR InstName R10
SYMATTR Value 10k
SYMBOL res 1152 448 R90
WINDOW 0 3 56 VBottom 2
WINDOW 3 27 56 VTop 2
SYMATTR InstName R11
SYMATTR Value 10k
SYMBOL cap 688 432 R90
WINDOW 0 0 32 VBottom 2
WINDOW 3 32 32 VTop 2
SYMATTR InstName C2
SYMATTR Value 1µ
SYMBOL TCLib\\OA_Ideal 912 128 R0
SYMATTR InstName U2
SYMATTR Value ""
SYMATTR Value2 ""
SYMBOL TCLib\\OA_Ideal 1344 160 R0
SYMATTR InstName U3
SYMATTR Value ""
SYMATTR Value2 ""
SYMBOL TCLib\\OA_Ideal 368 480 R0
SYMATTR InstName U4
SYMATTR Value ""
SYMATTR Value2 ""
SYMBOL TCLib\\OA_Ideal 784 512 R0
SYMATTR InstName U5
SYMATTR Value ""
SYMATTR Value2 ""
SYMBOL TCLib\\OA_Ideal 1232 544 R0
SYMATTR InstName U6
SYMATTR Value ""
SYMATTR Value2 ""
RECTANGLE Normal 1776 800 -304 -112 2
